
 OpenBabel01162409313D

 80110  0  0  0  0  0  0  0  0999 V2000
   -2.9412   -1.1386    0.0000 C   0  6  0  0  0  0  0  0  0  0  0  0
   -3.1335    0.0756    0.7127 C   0  0  0  0  0  0  0  0  0  0  0  0
   -3.6917    1.1709    0.0000 C   0  6  0  0  0  0  0  0  0  0  0  0
   -4.5609    2.0402    0.7127 C   0  0  0  0  0  0  0  0  0  0  0  0
   -5.6563    2.5983    0.0000 C   0  6  0  0  0  0  0  0  0  0  0  0
   -6.8705    2.7906    0.7127 C   0  0  0  0  0  0  0  0  0  0  0  0
   -8.0847    2.5983    0.0000 C   0  6  0  0  0  0  0  0  0  0  0  0
   -9.1801    2.0402    0.7127 C   0  0  0  0  0  0  0  0  0  0  0  0
  -10.0494    1.1709    0.0000 C   0  6  0  0  0  0  0  0  0  0  0  0
  -10.6075    0.0756    0.7127 C   0  0  0  0  0  0  0  0  0  0  0  0
  -10.7998   -1.1386    0.0000 C   0  6  0  0  0  0  0  0  0  0  0  0
  -10.6075   -2.3529    0.7127 C   0  0  0  0  0  0  0  0  0  0  0  0
  -10.0494   -3.4482    0.0000 C   0  6  0  0  0  0  0  0  0  0  0  0
   -9.1801   -4.3175    0.7127 C   0  0  0  0  0  0  0  0  0  0  0  0
   -8.0847   -4.8756    0.0000 C   0  6  0  0  0  0  0  0  0  0  0  0
   -6.8705   -5.0679    0.7127 C   0  0  0  0  0  0  0  0  0  0  0  0
   -5.6563   -4.8756    0.0000 C   0  6  0  0  0  0  0  0  0  0  0  0
   -4.5609   -4.3175    0.7127 C   0  0  0  0  0  0  0  0  0  0  0  0
   -3.6917   -3.4482    0.0000 C   0  6  0  0  0  0  0  0  0  0  0  0
   -3.1335   -2.3529    0.7127 C   0  0  0  0  0  0  0  0  0  0  0  0
   -2.9412   -1.1386    2.8464 C   0  0  0  0  0  0  0  0  0  0  0  0
   -3.1335    0.0756    2.1337 C   0  0  0  0  0  0  0  0  0  0  0  0
   -3.6917    1.1709    2.8464 C   0  0  0  0  0  0  0  0  0  0  0  0
   -4.5609    2.0402    2.1337 C   0  0  0  0  0  0  0  0  0  0  0  0
   -5.6563    2.5983    2.8464 C   0  0  0  0  0  0  0  0  0  0  0  0
   -6.8705    2.7906    2.1337 C   0  0  0  0  0  0  0  0  0  0  0  0
   -8.0847    2.5983    2.8464 C   0  0  0  0  0  0  0  0  0  0  0  0
   -9.1801    2.0402    2.1337 C   0  0  0  0  0  0  0  0  0  0  0  0
  -10.0494    1.1709    2.8464 C   0  0  0  0  0  0  0  0  0  0  0  0
  -10.6075    0.0756    2.1337 C   0  0  0  0  0  0  0  0  0  0  0  0
  -10.7998   -1.1386    2.8464 C   0  0  0  0  0  0  0  0  0  0  0  0
  -10.6075   -2.3529    2.1337 C   0  0  0  0  0  0  0  0  0  0  0  0
  -10.0494   -3.4482    2.8464 C   0  0  0  0  0  0  0  0  0  0  0  0
   -9.1801   -4.3175    2.1337 C   0  0  0  0  0  0  0  0  0  0  0  0
   -8.0847   -4.8756    2.8464 C   0  0  0  0  0  0  0  0  0  0  0  0
   -6.8705   -5.0679    2.1337 C   0  0  0  0  0  0  0  0  0  0  0  0
   -5.6563   -4.8756    2.8464 C   0  0  0  0  0  0  0  0  0  0  0  0
   -4.5609   -4.3175    2.1337 C   0  0  0  0  0  0  0  0  0  0  0  0
   -3.6917   -3.4482    2.8464 C   0  0  0  0  0  0  0  0  0  0  0  0
   -3.1335   -2.3529    2.1337 C   0  0  0  0  0  0  0  0  0  0  0  0
   -2.9412   -1.1386    4.2674 C   0  0  0  0  0  0  0  0  0  0  0  0
   -3.1335    0.0756    4.9801 C   0  0  0  0  0  0  0  0  0  0  0  0
   -3.6917    1.1709    4.2674 C   0  0  0  0  0  0  0  0  0  0  0  0
   -4.5609    2.0402    4.9801 C   0  0  0  0  0  0  0  0  0  0  0  0
   -5.6563    2.5983    4.2674 C   0  0  0  0  0  0  0  0  0  0  0  0
   -6.8705    2.7906    4.9801 C   0  0  0  0  0  0  0  0  0  0  0  0
   -8.0847    2.5983    4.2674 C   0  0  0  0  0  0  0  0  0  0  0  0
   -9.1801    2.0402    4.9801 C   0  0  0  0  0  0  0  0  0  0  0  0
  -10.0494    1.1709    4.2674 C   0  0  0  0  0  0  0  0  0  0  0  0
  -10.6075    0.0756    4.9801 C   0  0  0  0  0  0  0  0  0  0  0  0
  -10.7998   -1.1386    4.2674 C   0  0  0  0  0  0  0  0  0  0  0  0
  -10.6075   -2.3529    4.9801 C   0  0  0  0  0  0  0  0  0  0  0  0
  -10.0494   -3.4482    4.2674 C   0  0  0  0  0  0  0  0  0  0  0  0
   -9.1801   -4.3175    4.9801 C   0  0  0  0  0  0  0  0  0  0  0  0
   -8.0847   -4.8756    4.2674 C   0  0  0  0  0  0  0  0  0  0  0  0
   -6.8705   -5.0679    4.9801 C   0  0  0  0  0  0  0  0  0  0  0  0
   -5.6563   -4.8756    4.2674 C   0  0  0  0  0  0  0  0  0  0  0  0
   -4.5609   -4.3175    4.9801 C   0  0  0  0  0  0  0  0  0  0  0  0
   -3.6917   -3.4482    4.2674 C   0  0  0  0  0  0  0  0  0  0  0  0
   -3.1335   -2.3529    4.9801 C   0  0  0  0  0  0  0  0  0  0  0  0
   -2.9412   -1.1386    7.1138 C   0  6  0  0  0  0  0  0  0  0  0  0
   -3.1335    0.0756    6.4011 C   0  0  0  0  0  0  0  0  0  0  0  0
   -3.6917    1.1709    7.1138 C   0  6  0  0  0  0  0  0  0  0  0  0
   -4.5609    2.0402    6.4011 C   0  0  0  0  0  0  0  0  0  0  0  0
   -5.6563    2.5983    7.1138 C   0  6  0  0  0  0  0  0  0  0  0  0
   -6.8705    2.7906    6.4011 C   0  0  0  0  0  0  0  0  0  0  0  0
   -8.0847    2.5983    7.1138 C   0  6  0  0  0  0  0  0  0  0  0  0
   -9.1801    2.0402    6.4011 C   0  0  0  0  0  0  0  0  0  0  0  0
  -10.0494    1.1709    7.1138 C   0  6  0  0  0  0  0  0  0  0  0  0
  -10.6075    0.0756    6.4011 C   0  0  0  0  0  0  0  0  0  0  0  0
  -10.7998   -1.1386    7.1138 C   0  6  0  0  0  0  0  0  0  0  0  0
  -10.6075   -2.3529    6.4011 C   0  0  0  0  0  0  0  0  0  0  0  0
  -10.0494   -3.4482    7.1138 C   0  6  0  0  0  0  0  0  0  0  0  0
   -9.1801   -4.3175    6.4011 C   0  0  0  0  0  0  0  0  0  0  0  0
   -8.0847   -4.8756    7.1138 C   0  6  0  0  0  0  0  0  0  0  0  0
   -6.8705   -5.0679    6.4011 C   0  0  0  0  0  0  0  0  0  0  0  0
   -5.6563   -4.8756    7.1138 C   0  6  0  0  0  0  0  0  0  0  0  0
   -4.5609   -4.3175    6.4011 C   0  0  0  0  0  0  0  0  0  0  0  0
   -3.6917   -3.4482    7.1138 C   0  6  0  0  0  0  0  0  0  0  0  0
   -3.1335   -2.3529    6.4011 C   0  0  0  0  0  0  0  0  0  0  0  0
  1 20  1  0  0  0  0
  1  2  1  0  0  0  0
  2 22  2  0  0  0  0
  3  2  1  0  0  0  0
  3  4  1  0  0  0  0
  4 24  2  0  0  0  0
  5  6  1  0  0  0  0
  5  4  1  0  0  0  0
  6 26  2  0  0  0  0
  7  6  1  0  0  0  0
  7  8  1  0  0  0  0
  8 28  2  0  0  0  0
  9  8  1  0  0  0  0
  9 10  1  0  0  0  0
 10 30  2  0  0  0  0
 11 10  1  0  0  0  0
 11 12  1  0  0  0  0
 12 32  2  0  0  0  0
 13 12  1  0  0  0  0
 13 14  1  0  0  0  0
 14 34  2  0  0  0  0
 15 14  1  0  0  0  0
 15 16  1  0  0  0  0
 16 36  2  0  0  0  0
 17 18  1  0  0  0  0
 17 16  1  0  0  0  0
 18 38  2  0  0  0  0
 19 18  1  0  0  0  0
 19 20  1  0  0  0  0
 20 40  2  0  0  0  0
 21 41  2  0  0  0  0
 22 23  1  0  0  0  0
 22 21  1  0  0  0  0
 23 43  2  0  0  0  0
 24 25  1  0  0  0  0
 24 23  1  0  0  0  0
 25 45  2  0  0  0  0
 26 25  1  0  0  0  0
 26 27  1  0  0  0  0
 27 47  2  0  0  0  0
 28 27  1  0  0  0  0
 28 29  1  0  0  0  0
 29 49  2  0  0  0  0
 30 31  1  0  0  0  0
 30 29  1  0  0  0  0
 31 51  2  0  0  0  0
 32 33  1  0  0  0  0
 32 31  1  0  0  0  0
 33 53  2  0  0  0  0
 34 33  1  0  0  0  0
 34 35  1  0  0  0  0
 35 55  2  0  0  0  0
 36 37  1  0  0  0  0
 36 35  1  0  0  0  0
 37 57  2  0  0  0  0
 38 37  1  0  0  0  0
 38 39  1  0  0  0  0
 39 59  2  0  0  0  0
 40 21  1  0  0  0  0
 40 39  1  0  0  0  0
 41 42  1  0  0  0  0
 41 60  1  0  0  0  0
 42 62  2  0  0  0  0
 43 44  1  0  0  0  0
 43 42  1  0  0  0  0
 44 64  2  0  0  0  0
 45 46  1  0  0  0  0
 45 44  1  0  0  0  0
 46 66  2  0  0  0  0
 47 46  1  0  0  0  0
 47 48  1  0  0  0  0
 48 68  2  0  0  0  0
 49 48  1  0  0  0  0
 49 50  1  0  0  0  0
 50 70  2  0  0  0  0
 51 52  1  0  0  0  0
 51 50  1  0  0  0  0
 52 72  2  0  0  0  0
 53 52  1  0  0  0  0
 53 54  1  0  0  0  0
 54 74  2  0  0  0  0
 55 54  1  0  0  0  0
 55 56  1  0  0  0  0
 56 76  2  0  0  0  0
 57 58  1  0  0  0  0
 57 56  1  0  0  0  0
 58 78  2  0  0  0  0
 59 58  1  0  0  0  0
 59 60  1  0  0  0  0
 60 80  2  0  0  0  0
 62 61  1  0  0  0  0
 62 63  1  0  0  0  0
 64 65  1  0  0  0  0
 64 63  1  0  0  0  0
 66 65  1  0  0  0  0
 66 67  1  0  0  0  0
 68 67  1  0  0  0  0
 68 69  1  0  0  0  0
 70 71  1  0  0  0  0
 70 69  1  0  0  0  0
 72 73  1  0  0  0  0
 72 71  1  0  0  0  0
 74 73  1  0  0  0  0
 74 75  1  0  0  0  0
 76 77  1  0  0  0  0
 76 75  1  0  0  0  0
 78 77  1  0  0  0  0
 78 79  1  0  0  0  0
 80 61  1  0  0  0  0
 80 79  1  0  0  0  0
M  CHG  8   1  -2   3  -2   5  -2   7  -2   9  -2  11  -2  13  -2  15  -2
M  CHG  8  17  -2  19  -2  61  -2  63  -2  65  -2  67  -2  69  -2  71  -2
M  CHG  4  73  -2  75  -2  77  -2  79  -2
M  END
